          60
 
 C    10.9876613298844        7.28183376281733       -6.61652628592713     
 C   -1.86377958252403        6.28226608964743        11.4805137065024     
 C   -5.18249208932532       -12.0903658361081        9.69000563912158     
 C    3.58913907979184        14.3206381709506        14.1590164422080     
 C   -8.94419130749865       -7.33873006798204        3.04472253148619     
 C   -3.79668609049391        8.86709744596308        6.04279925686960     
 C    5.57551262148755       -8.29426230359875       -3.27031209438583     
 C    5.91237761655677        6.38680124394543        3.59564776913081     
 C    15.3115477800263       -12.0466183236756        14.8980204072472     
 C   -11.4842462503358        7.93884617058768        15.0850191373643     
 C   -10.2279245264291        9.26709131911820        12.0694700852942     
 C    14.6796652939541        13.8879274679247        9.66312383379566     
 C   -7.88594343019870        2.29866587306997       -4.06396120361748     
 C    5.97377480332168        5.19122174902771        13.8797527977123     
 C   -1.08506561596456       -13.8978315867221       -9.65178317106747     
 C   -9.03636092356890        6.60655107196172       -4.54272760336878     
 C   -4.74796372152635        10.6879978026952       -6.79550662588390     
 C   -10.8702151665425        2.24396796034035        8.37220512799126     
 C   -11.0948710860166        5.74913853619858       -9.75167307211503     
 C   -8.60416227421045       -13.3860476110088        12.2220083043341     
 C    7.58038257695774       -14.3302150740953      -0.615574728219167     
 C    5.14187571670907        11.1323333866397      -0.892530755776804     
 C    10.5226443893394       -1.44934233280207       -6.68815972749776     
 C    14.3503084661917       -14.0699938671447       -11.8205207288031     
 C   -5.56879481333089        13.6740804788071        2.79114190219640     
 C   -13.9435938638583        13.6871088402338       -7.50057469936960     
 C   -14.1106656045510        9.78303345700022       -7.97099255649247     
 C   -8.81843777108269       -1.44016638568913        3.50028229637887     
 C    13.1526239719270        6.54076933143814        5.77325958729380     
 C    6.92862013390608       -3.82866597752011       -5.66678522795706     
 C   -3.41133914425837        4.33836666353315       -4.84340803099833     
 C    12.8549893978041        12.4119491634385       -10.5112423687620     
 C   -15.2303295769117        12.5539411091347       -14.2806865794627     
 C   -12.7296058636953        5.30149793186764        3.23177948959238     
 C   -3.70656945210479        13.6240507730297       -9.42675056526232     
 C    2.67770005755254        9.45816530061782        6.63268450023671     
 C    7.72522475745367        13.4760297660984        9.88806551576138     
 C    2.96831106129783       -2.17642821838936        4.37390923383458     
 C   -4.67619926652170        9.27967794832987       0.250439282694258     
 C   -3.35092967386063        1.59284527401869        9.92383990701334     
 C   -2.78998824063997       -12.5512124379387       -13.2085018019705     
 C   -9.55481094795703       -12.0586761624970        7.70241546614263     
 C    10.6530339536969       -14.8513948990145       -13.5082184334927     
 C    1.19117029634852        1.45234613051835        7.12766727929061     
 C    13.3477521960648        13.2405079737845        6.07952261160733     
 C    2.34511822400015       -6.37188067780045       -12.4727357574220     
 C   -2.39596941989393        5.33064039885136      -0.331180854083959     
 C   -14.4637907428343        9.70333055997046        4.29345258975824     
 C  -0.526230101361344        14.9891816338454        2.64531806385734     
 C   -1.50859251539948       -3.43886091880794        5.92447416537489     
 C    2.50290422274516        15.0615755384665        5.53428890111354     
 C   -9.24012754933048       -12.8548296725786       -10.9292080611584     
 C    14.8726759484512       -3.84597590377383        10.5479081867767     
 C    7.32005028466753        10.5614065943754       -10.4079219325453     
 C   -13.2270668967462        9.36879595268981       -4.64321841958961     
 C   -2.72891386668404        12.7413288692703        10.5824974707362     
 C   -3.50433586034646        1.99375351911368       -8.29718517159671     
 C    9.63104291861047        11.9880278304885       -15.5094762114568     
 C    11.6529039876462        13.3190438557375        1.90905265424287     
 C   -11.9798900456188       -4.34164586263863       1.401612485477617E-003
           0
 
