           5
 
 C      3.8874027072997     6.1832382223031     1.2762921162695    1    1
 C      3.8402485831766     5.2099788901230     0.0837558538905    1    1
 C      5.0717690000000     4.2891410000000     0.0000000000000    1    1
 C      5.1425164980108     3.1155578992080     0.9946344406713    1    1
 C      6.2183718214887     2.0668420822533     0.6565068330351    1    1
           5
 
 C      7.2849623760763     2.8640426754782     0.0784677856031    1    1
 C      5.8943550579834     3.1037220926405    -0.5382696269398    1    1
 C      5.0717690000000     4.2891410000000     0.0000000000000    1    1
 C      3.6321133125932     4.4350385445292    -0.5269777810555    1    1
 C      3.4470244080684     4.9187313426063    -1.9772822958995    1    1
           5
 
 C      6.2259631380622     2.8270258891114    -1.7614279499322    1    1
 C      5.6381243841123     4.2112849981296    -1.4299580489860    1    1
 C      5.0717690000000     4.2891410000000     0.0000000000000    1    1
 C      4.8288664822617     5.7726919665250     0.3341782011260    1    1
 C      3.5320754751272     6.1803384836415    -0.3895325443663    1    1
           5
 
 C      3.9345751487782     3.4841742942060    -2.1413107907795    1    1
 C      3.7500724139807     4.1876267505241    -0.7838450048691    1    1
 C      5.0717690000000     4.2891410000000     0.0000000000000    1    1
 C      5.1504431216141     5.3941123889991     1.0697891313667    1    1
 C      6.5567742021603     5.8389313606240     1.5124727514731    1    1
           5
 
 C      5.2961741453932     5.9959851258746    -1.9432995220030    1    1
 C      4.3937953904094     5.0076411240143    -1.1814014374844    1    1
 C      5.0717690000000     4.2891410000000     0.0000000000000    1    1
 C      4.3995207400958     3.0032917310593     0.5160175463384    1    1
 C      4.8041073305634     2.7602423050008     1.9819085725880    1    1
           5
 
 C      4.2320633090547     4.4669123476961    -2.3138681168616    1    1
 C      4.9916668855071     5.2325282277328    -1.2145798408522    1    1
 C      5.0717690000000     4.2891410000000     0.0000000000000    1    1
 C      5.5515652214879     5.0614144022696     1.2429760864561    1    1
 C      6.7553788372580     5.9765162764632     0.9513922001917    1    1
           5
 
 C      3.6736887068032     6.2995346729135     0.5177230114765    1    1
 C      4.4537073762643     5.1246529015476     1.1364504791840    1    1
 C      5.0717690000000     4.2891410000000     0.0000000000000    1    1
 C      5.9242839103464     3.1311010217745     0.5511459969714    1    1
 C      7.1100534630554     3.7808705174771     1.2882687910382    1    1
           5
 
 C      3.8170835029637     2.2581024258311    -0.9497441054513    1    1
 C      3.7061627487793     3.6163018915020    -0.2323942785498    1    1
 C      5.0717690000000     4.2891410000000     0.0000000000000    1    1
 C      4.9918499835759     5.6069474357110     0.7928425583439    1    1
 C      4.3527733291295     6.8209507496693     0.0932878463477    1    1
           5
 
 C      4.0650605425489     5.8675257110804     1.8898216785030    1    1
 C      4.3847621795445     4.4542122866007     1.3683468489340    1    1
 C      5.0717690000000     4.2891410000000     0.0000000000000    1    1
 C      5.0024813061752     2.7866098363795    -0.3304534632024    1    1
 C      5.8150781272340     2.1978257506686    -1.4986227616401    1    1
           5
 
 C      4.7775664831255     6.7930601838951    -0.5789819349078    1    1
 C      4.5991667986088     5.3315436886567    -1.0303610017472    1    1
 C      5.0717690000000     4.2891410000000     0.0000000000000    1    1
 C      4.6254339331019     2.8327071618530    -0.2262424731702    1    1
 C      3.0875567974188     2.8777424890567    -0.2933660916355    1    1
           5
 
 C      4.9818680914649     3.8004930148162    -2.5842645535413    1    1
 C      4.4718595452361     4.6144525113761    -1.3805365140593    1    1
 C      5.0717690000000     4.2891410000000     0.0000000000000    1    1
 C      6.5972271641513     4.4991921513973     0.0213559530224    1    1
 C      7.3939125200137     3.7536745026465     1.1081382181705    1    1
           5
 
 C      2.7998743938992     4.6088537770275     1.2182526218317    1    1
 C      4.0007316891269     5.2684986380692     0.5151094014608    1    1
 C      5.0717690000000     4.2891410000000     0.0000000000000    1    1
 C      4.6265524115973     3.6891677821437    -1.3466307960146    1    1
 C      5.6184512580275     2.5330325744303    -1.5726571463980    1    1
           5
 
 C      5.5509498924165     3.0009709601716     2.1675006698545    1    1
 C      5.4822640138182     4.3780849659486     1.4816149346412    1    1
 C      5.0717690000000     4.2891410000000     0.0000000000000    1    1
 C      6.0356221322644     3.5011024065841    -0.9064118755952    1    1
 C      5.5595282330669     3.1432558770964    -2.3265809750634    1    1
           5
 
 C      5.5622602133716     4.9329625709865    -2.5698710158176    1    1
 C      5.8189463880531     5.1163940364874    -1.0625339356484    1    1
 C      5.0717690000000     4.2891410000000     0.0000000000000    1    1
 C      5.2297065473010     4.8939583381503     1.4074274020830    1    1
 C      3.9462136021742     4.7622108810399     2.2481938936143    1    1
           5
 
 C      2.9229203335393     4.1827531732653    -1.4711477351816    1    1
 C      3.7021372070483     4.8987226799609    -0.3523051620284    1    1
 C      5.0717690000000     4.2891410000000     0.0000000000000    1    1
 C      5.6476750371317     4.6829285072927     1.3729034230434    1    1
 C      4.6257992860106     4.4759604233086     2.5062762604192    1    1
           5
 
 C      4.4166272631115     1.8229217967835     0.0802804854312    1    1
 C      4.8201128776994     3.0079753218351    -0.8166294760790    1    1
 C      5.0717690000000     4.2891410000000     0.0000000000000    1    1
 C      5.5798869535134     5.2256558878369    -1.1119155470115    1    1
 C      6.4081134517935     6.4787134513855    -0.7720811567252    1    1
           5
 
 C      5.2158908618167     3.3798971254141    -2.4589431488580    1    1
 C      5.7346545290936     3.3337748912746    -1.0096823132140    1    1
 C      5.0717690000000     4.2891410000000     0.0000000000000    1    1
 C      5.4801488151665     4.1979612024039     1.4820635426943    1    1
 C      4.8958850531029     5.3035795501754     2.3808648247502    1    1
           5
 
 C      4.1715485840328     5.3033458550311     2.1454360061044    1    1
 C      4.8349017000010     4.0695092214835     1.5057409352398    1    1
 C      5.0717690000000     4.2891410000000     0.0000000000000    1    1
 C      5.8392862007431     5.5847774533892    -0.3222478870702    1    1
 C      6.5435115579968     5.5384819521962    -1.6910149224653    1    1
           5
 
 C      5.3760978141700     5.7573806642302    -2.1194103759316    1    1
 C      5.1627392098201     4.3481547498236    -1.5361776584292    1    1
 C      5.0717690000000     4.2891410000000     0.0000000000000    1    1
 C      3.8513977173495     5.0567340777829     0.5413824645577    1    1
 C      3.4941488255332     4.9510647019609     2.0356404807658    1    1
           5
 
 C      5.2273483473150     6.5010993377052     1.2102774480553    1    1
 C      5.2206953358755     4.9697747681536     1.3733749015225    1    1
 C      5.0717690000000     4.2891410000000     0.0000000000000    1    1
 C      4.5673470920841     2.8373257493333     0.0969081537058    1    1
 C      4.3438084735152     2.0573236560992    -1.2119948337536    1    1
           5
 
 C      7.4236520431742     5.3440048140875     0.3158580996972    1    1
 C      6.4224541293343     4.6650396941331    -0.6371419411278    1    1
 C      5.0717690000000     4.2891410000000     0.0000000000000    1    1
 C      5.0743787323341     3.1610658705035     1.0483510218516    1    1
 C      3.6974961913280     2.6016033084820     1.4518307920412    1    1
           5
 
 C      6.7279681962900     4.4840665574997    -2.0078168476051    1    1
 C      5.6370575495219     3.6673655948058    -1.2905209030755    1    1
 C      5.0717690000000     4.2891410000000     0.0000000000000    1    1
 C      4.4605130274894     5.7003854966739    -0.0797200112049    1    1
 C      4.0804889077010     6.3103348000689     1.2823164550762    1    1
           5
 
 C      6.1953487479327     2.3188871501442     1.3804611208574    1    1
 C      5.1703755426016     2.7884570574920     0.3313977284995    1    1
 C      5.0717690000000     4.2891410000000     0.0000000000000    1    1
 C      6.1564024642386     4.5685410605359    -1.0569323667743    1    1
 C      6.2343040884781     6.0820304630881    -1.3305762939197    1    1
           5
 
 C      4.1801263664552     4.1926585111890    -2.5402301098071    1    1
 C      4.5090903803648     3.5067874237218    -1.2012142409621    1    1
 C      5.0717690000000     4.2891410000000     0.0000000000000    1    1
 C      4.0302049295318     5.1442648674350     0.7453238436823    1    1
 C      4.6554519440737     5.8438788160618     1.9664734343636    1    1
           5
 
 C      5.7690998090621     1.8382907506520     0.2265789510214    1    1
 C      4.7108048750436     2.9038071789335     0.5675870899728    1    1
 C      5.0717690000000     4.2891410000000     0.0000000000000    1    1
 C      3.9770158262842     5.3475600254255     0.2299235280808    1    1
 C      4.0078666048154     6.5605384100034    -0.7184073658305    1    1
           5
 
 C      4.8267258919945     3.3759906272644    -2.4419737942560    1    1
 C      5.2991810592688     4.5053707473878    -1.5076897730116    1    1
 C      5.0717690000000     4.2891410000000     0.0000000000000    1    1
 C      6.3334622356890     3.6660149346827     0.6256550641108    1    1
 C      6.4542095067597     3.9962697680839     2.1249721315334    1    1
           5
 
 C      2.7329513109595     5.1143402994888     0.2543633725725    1    1
 C      4.2155240056010     5.5086817942270     0.3887991265202    1    1
 C      5.0717690000000     4.2891410000000     0.0000000000000    1    1
 C      5.1875052802735     3.0985567823331     0.9699043806374    1    1
 C      6.0614674531790     3.4864181791534     2.1771133475310    1    1
           5
 
 C      3.3181272302394     5.6195173574319     1.2406596481139    1    1
 C      3.5634715232722     4.4556044195151     0.2625426663610    1    1
 C      5.0717690000000     4.2891410000000     0.0000000000000    1    1
 C      5.7967095347647     3.5254150379928     1.1237366459807    1    1
 C      7.2478868627718     3.2972478666900     0.6615419416182    1    1
           5
 
 C      3.4889825911037     5.8063801933109     1.1130830818027    1    1
 C      3.5865843133178     4.4616873524432     0.3688552598284    1    1
 C      5.0717690000000     4.2891410000000     0.0000000000000    1    1
 C      5.2191290556206     2.7934549064155    -0.3358694641885    1    1
 C      6.6387229630127     2.3278632851802    -0.7094700486870    1    1
           5
 
 C      2.8012738512911     5.3462923430494    -0.9594980372108    1    1
 C      4.1914910809363     4.7238925455551    -1.1864661305095    1    1
 C      5.0717690000000     4.2891410000000     0.0000000000000    1    1
 C      4.6378752899378     3.0169427842648     0.7515637842243    1    1
 C      5.2162940667950     3.1498328972263     2.1726098006817    1    1
           5
 
 C      5.3917392490617     2.0523679393455     1.0760415837063    1    1
 C      4.4528898063896     2.8917908841963     0.1897398154832    1    1
 C      5.0717690000000     4.2891410000000     0.0000000000000    1    1
 C      4.1554555002627     5.0619110708569    -0.9668485720607    1    1
 C      3.3310202537340     4.1584529489825    -1.9026208561968    1    1
           5
 
 C      3.0900498515790     5.8380761156806    -0.8474148592980    1    1
 C      4.0322608798175     4.6423459292400    -1.0799394177616    1    1
 C      5.0717690000000     4.2891410000000     0.0000000000000    1    1
 C      5.9497048832623     3.0900073952463    -0.4036178345163    1    1
 C      6.8369706961472     3.1225975782667    -1.6619091592139    1    1
           5
 
 C      6.1310303801036     5.1418262995152     2.2557411409717    1    1
 C      5.1072838580044     5.3424255862777     1.1229115170710    1    1
 C      5.0717690000000     4.2891410000000     0.0000000000000    1    1
 C      3.9115571506448     4.4264989681514    -1.0033152180196    1    1
 C      2.4769273767693     4.7761426095575    -0.5660663934570    1    1
           5
 
 C      5.2441492685498     2.5430512342754     1.9355656585808    1    1
 C      4.6377337737490     2.9272512506728     0.5731227905527    1    1
 C      5.0717690000000     4.2891410000000     0.0000000000000    1    1
 C      4.6705921175248     5.4798665608912     0.8904099736170    1    1
 C      5.1052166956779     6.8876082417004     0.4421191669501    1    1
           5
 
 C      3.3475584342445     2.4641085884424    -0.1336741663724    1    1
 C      4.8562045815698     2.7657196331078    -0.0657215368274    1    1
 C      5.0717690000000     4.2891410000000     0.0000000000000    1    1
 C      6.4950436990029     4.8507952137951    -0.1744529988650    1    1
 C      6.5729721687843     6.3883771794385    -0.2114485742435    1    1
           5
 
 C      5.6803034916790     6.6412113711490    -0.2351058761206    1    1
 C      6.2761637353100     5.2480204531287     0.0397934155989    1    1
 C      5.0717690000000     4.2891410000000     0.0000000000000    1    1
 C      5.3441327866234     2.8207485818383     0.3758215634184    1    1
 C      5.9366262383176     2.6671814801140     1.7889629150348    1    1
           5
 
 C      3.3402898063630     2.4632601537038    -0.5375196884751    1    1
 C      4.0764144049047     3.2554594218887     0.5589021605756    1    1
 C      5.0717690000000     4.2891410000000     0.0000000000000    1    1
 C      5.7260023660409     4.9690930036604     1.2170637407243    1    1
 C      5.7483449866991     4.2213098725096     2.5631398916834    1    1
           5
 
 C      6.9828285774308     3.6803306325860     1.6932164229823    1    1
 C      6.5396730474300     3.8857912413354     0.2327373621142    1    1
 C      5.0717690000000     4.2891410000000     0.0000000000000    1    1
 C      3.9778411252348     3.2136483890164     0.1350467402056    1    1
 C      4.0005732764106     2.3701371308876    -1.1531969660585    1    1
           5
 
 C      7.4252073666947     4.3699040782271     0.9013247120000    1    1
 C      6.5280751197097     4.6816979673087    -0.3109204289096    1    1
 C      5.0717690000000     4.2891410000000     0.0000000000000    1    1
 C      4.7494750069832     2.7861922120461     0.0941896828849    1    1
 C      3.2469073983256     2.5079960072498    -0.0968529306519    1    1
           5
 
 C      3.4596304673181     4.2282538955357    -1.9432357679579    1    1
 C      4.3794912462846     5.1242422536947    -1.0931410740560    1    1
 C      5.0717690000000     4.2891410000000     0.0000000000000    1    1
 C      5.6793987600219     5.0528030252885     1.1913045619726    1    1
 C      6.0121656275888     4.1647066342521     2.4046267916350    1    1
           5
 
 C      6.7628775312833     3.3646419080042    -1.7210179297176    1    1
 C      6.1266985448646     3.2157682548629    -0.3264882928508    1    1
 C      5.0717690000000     4.2891410000000     0.0000000000000    1    1
 C      4.3086250633341     4.0410661439760     1.3144087534886    1    1
 C      3.8247744577137     2.5791113836954     1.3011155257554    1    1
           5
 
 C      3.4848483866205     6.3361539216043    -0.1410023443305    1    1
 C      4.1265611680915     5.2510800883562     0.7435424297183    1    1
 C      5.0717690000000     4.2891410000000     0.0000000000000    1    1
 C      5.8263165167120     3.3314900921334     0.9408309928966    1    1
 C      6.4628677075822     2.0627196746590     0.3436509379256    1    1
           5
 
 C      4.8439321802440     4.2568249236993     2.5484993730660    1    1
 C      4.1329295716393     4.0532172921445     1.1977147122028    1    1
 C      5.0717690000000     4.2891410000000     0.0000000000000    1    1
 C      4.3151392956324     4.0703254610052    -1.3233410081577    1    1
 C      5.1317894380577     4.4247305063588    -2.5799552806226    1    1
           5
 
 C      7.5250577611089     4.9809226077382     0.5429486410864    1    1
 C      6.2739797410320     4.1839033167742     0.9566683668736    1    1
 C      5.0717690000000     4.2891410000000     0.0000000000000    1    1
 C      3.8293302114502     3.5693222170370     0.5566030451851    1    1
 C      4.1585980899380     2.1182091747766     0.9534070673036    1    1
           5
 
 C      6.9353717368517     5.2609443031199     1.4726809868762    1    1
 C      5.4277463060999     5.2381831565155     1.1593960249622    1    1
 C      5.0717690000000     4.2891410000000     0.0000000000000    1    1
 C      3.6116335899214     4.2262731911679    -0.4854404148359    1    1
 C      3.5579727781843     3.1862240098065    -1.6199085980238    1    1
           5
 
 C      4.9073580744121     6.3750119984752    -1.5297704849486    1    1
 C      4.4486459501968     5.6775911953073    -0.2356347172109    1    1
 C      5.0717690000000     4.2891410000000     0.0000000000000    1    1
 C      6.5471484808279     4.4502873716063     0.4109591317625    1    1
 C      6.7392649773335     3.6395400028693     1.7060961119996    1    1
           5
 
 C      7.1166426968741     5.6063146964666    -0.7991231123979    1    1
 C      6.3167100372901     5.0957116780848     0.4137215910788    1    1
 C      5.0717690000000     4.2891410000000     0.0000000000000    1    1
 C      4.2867152520475     3.5692445667265     1.1122229595250    1    1
 C      3.9742178550120     4.3690913034028     2.3905775217145    1    1
           5
 
 C      2.7634497778291     3.7979092260622     0.8452649837240    1    1
 C      3.6215437199552     3.9853388733484    -0.4197033535259    1    1
 C      5.0717690000000     4.2891410000000     0.0000000000000    1    1
 C      5.8227779482894     5.2868983211802    -0.9011470807418    1    1
 C      6.0216207361951     4.5717963680452    -2.2504767611665    1    1
           5
 
 C      7.5438080790463     4.5910839344505    -0.9881629292748    1    1
 C      6.5486739715707     4.6850302271468     0.1833669129884    1    1
 C      5.0717690000000     4.2891410000000     0.0000000000000    1    1
 C      4.2005720629578     4.4541833774625     1.2591175814985    1    1
 C      2.7113928960806     4.1032190180791     1.0837059379256    1    1
           5
 
 C      2.8083337268141     3.2058547780360     0.6117232114330    1    1
 C      3.7885238594641     3.6051166686615    -0.5069443987538    1    1
 C      5.0717690000000     4.2891410000000     0.0000000000000    1    1
 C      5.9164097541219     3.4143285177836     0.9449260769730    1    1
 C      7.1512084373218     4.2144012197775     1.3996300672781    1    1
           5
 
 C      5.7122258666887     3.1898763693850    -2.2870312722644    1    1
 C      4.6451616476416     3.8894563189145    -1.4247309649963    1    1
 C      5.0717690000000     4.2891410000000     0.0000000000000    1    1
 C      4.1262223171854     5.2982702324480     0.6776428530915    1    1
 C      4.5761488231385     5.9371437654561     2.0046720758553    1    1
           5
 
 C      6.9598562229394     3.0689230089465    -1.1536252168584    1    1
 C      5.5326324142630     2.9429454730028    -0.5890352421431    1    1
 C      5.0717690000000     4.2891410000000     0.0000000000000    1    1
 C      3.5544407893376     4.3522707936878     0.2555971513649    1    1
 C      3.2738408760627     5.6016551130850     1.1111100677120    1    1
           5
 
 C      5.7394023630904     2.5429731655067     1.7393749072246    1    1
 C      6.1603550538030     3.8154182215795     0.9809011839483    1    1
 C      5.0717690000000     4.2891410000000     0.0000000000000    1    1
 C      5.1040617597511     5.7351768132143    -0.5287133231518    1    1
 C      3.8071462280637     6.0331977112371    -1.3038220132093    1    1
           5
 
 C      2.5986717011409     4.8636970757007    -0.2690356149837    1    1
 C      3.7895455742392     4.7720247113177     0.7030834998592    1    1
 C      5.0717690000000     4.2891410000000     0.0000000000000    1    1
 C      6.3451194874265     5.0025331635554     0.4911724042099    1    1
 C      7.4833932827359     5.0144680022642    -0.5460306371393    1    1
           5
 
 C      3.5920630561062     5.8393488862433    -1.4132147576352    1    1
 C      4.1055390016868     5.4882990654067    -0.0044186570017    1    1
 C      5.0717690000000     4.2891410000000     0.0000000000000    1    1
 C      5.7188887239720     4.0796324137990     1.3816448127732    1    1
 C      6.7090107843708     2.9068708404695     1.5076940566407    1    1
           5
 
 C      3.9991474156064     6.5284834644135    -0.6131567754157    1    1
 C      4.5893596793704     5.2067600524643    -1.1387960844348    1    1
 C      5.0717690000000     4.2891410000000     0.0000000000000    1    1
 C      5.8297705189933     3.0329079297989    -0.4678806942434    1    1
 C      6.6740408167043     2.2297946573489     0.5390038779354    1    1
           5
 
 C      7.0866662544805     4.3289476637001    -1.4657383177202    1    1
 C      5.8904596837697     5.1620866108596    -0.9691808524676    1    1
 C      5.0717690000000     4.2891410000000     0.0000000000000    1    1
 C      4.2528233212339     5.0585183056815     1.0530843794499    1    1
 C      3.7098336980987     4.1177979112019     2.1447836222482    1    1
           5
 
 C      3.8943138070497     5.1540018143711    -2.1286238261750    1    1
 C      4.4565402961057     5.4939918399126    -0.7358179771292    1    1
 C      5.0717690000000     4.2891410000000     0.0000000000000    1    1
 C      5.8820553714677     4.7250706412586     1.2349095179788    1    1
 C      6.6879286221863     3.5847865278205     1.8844634157925    1    1
           5
 
 C      6.4530780472505     6.3421922783120    -0.8096029393125    1    1
 C      5.1027293280919     5.7977327410599    -0.3078837717228    1    1
 C      5.0717690000000     4.2891410000000     0.0000000000000    1    1
 C      5.4738702936416     3.3821975514163    -1.1778659958720    1    1
 C      5.5196939879839     1.8806201100766    -0.8390958721196    1    1
           5
 
 C      7.5283386900573     4.4545767270951     0.0750026745537    1    1
 C      6.3583873485532     3.4557973266038     0.1474840573643    1    1
 C      5.0717690000000     4.2891410000000     0.0000000000000    1    1
 C      3.7792800679928     3.4876739320482    -0.2423284406264    1    1
 C      2.4876756934669     4.3159250455463    -0.3740783879901    1    1
           5
 
 C      3.0554944066936     4.6055876890557     1.5154308989877    1    1
 C      3.9897360711716     5.2705397178261     0.4875051769779    1    1
 C      5.0717690000000     4.2891410000000     0.0000000000000    1    1
 C      6.1022539916264     4.9869233973055    -0.9070835581974    1    1
 C      7.3381709988053     4.1188293900930    -1.2079519164873    1    1
           5
 
 C      4.4893923318789     1.8235377910343     0.0469193235963    1    1
 C      4.6504513697179     3.0706033682470    -0.8421742660610    1    1
 C      5.0717690000000     4.2891410000000     0.0000000000000    1    1
 C      4.2155426921695     4.3643327043717     1.2778195846368    1    1
 C      4.5940802119623     5.6072138688496     2.1045937911272    1    1
           5
 
 C      3.0450851345221     5.3476945611206    -1.1068160186607    1    1
 C      4.2745368840295     4.4425301897143    -1.3086224473637    1    1
 C      5.0717690000000     4.2891410000000     0.0000000000000    1    1
 C      5.7414037056510     5.5688434848585     0.5343698014891    1    1
 C      7.2139919002868     5.6886498237844     0.9688007415329    1    1
           5
 
 C      4.1339946275700     3.2963228126597    -2.2003003201124    1    1
 C      4.3162712203879     4.5448396340434    -1.3173614969133    1    1
 C      5.0717690000000     4.2891410000000     0.0000000000000    1    1
 C      4.9357912441921     5.3058237993458     1.1486802466085    1    1
 C      5.9014715108128     5.1630549959856     2.3397631586744    1    1
           5
 
 C      2.6897467150345     3.4287518035205    -0.9703972146226    1    1
 C      3.7342362848725     3.5418803304749     0.1555883277905    1    1
 C      5.0717690000000     4.2891410000000     0.0000000000000    1    1
 C      6.1801977631519     4.0072284796778     1.0312667847903    1    1
 C      7.4515026180741     4.8605341548642     0.8661813240572    1    1
           5
 
 C      2.7080095902231     5.0097651364017    -0.5899138349994    1    1
 C      4.0493041742858     5.4402797954297     0.0323288390446    1    1
 C      5.0717690000000     4.2891410000000     0.0000000000000    1    1
 C      6.4113190375259     4.9170426018749     0.4277212279466    1    1
 C      7.5823630791358     3.9405040430524     0.6436566602400    1    1
           5
 
 C      3.6690229207849     6.3783574614595     0.5137043991488    1    1
 C      4.5211589846594     5.2308500608437     1.0870200806478    1    1
 C      5.0717690000000     4.2891410000000     0.0000000000000    1    1
 C      5.4228867994753     2.9667656480275     0.7068521011471    1    1
 C      6.4630114200766     3.1829722078321     1.8217491033399    1    1
           5
 
 C      2.9298319839889     5.1725721446903     1.1289928394825    1    1
 C      4.4639749669518     5.2612006888941     1.0282443165990    1    1
 C      5.0717690000000     4.2891410000000     0.0000000000000    1    1
 C      4.7548827473642     4.4777042719887    -1.4952013807030    1    1
 C      5.3803686933460     3.3021638185738    -2.2688109797234    1    1
           5
 
 C      3.0093077223377     4.9853228403330    -1.2159793705136    1    1
 C      3.6816209776340     3.8194525891611    -0.4674198034269    1    1
 C      5.0717690000000     4.2891410000000     0.0000000000000    1    1
 C      6.0748301048552     4.6511336743147    -1.1110490075500    1    1
 C      7.3096914048038     5.2187898627831    -0.3868364236796    1    1
           5
 
 C      7.2393045783118     3.7420333606588    -1.2327431773934    1    1
 C      5.9836025992818     4.6326491911744    -1.1925441752056    1    1
 C      5.0717690000000     4.2891410000000     0.0000000000000    1    1
 C      5.7158955564519     4.4768126431574     1.3861747751048    1    1
 C      4.7889328836824     3.9729465063211     2.5079853420524    1    1
           5
 
 C      3.5299149597092     2.4303702213961    -0.8265164722501    1    1
 C      4.9813474464211     2.9358541569804    -0.7294098046766    1    1
 C      5.0717690000000     4.2891410000000     0.0000000000000    1    1
 C      6.3886698561241     5.0790897922431    -0.1155561088048    1    1
 C      6.3613241247955     6.2215862345299     0.9167006070912    1    1
           5
 
 C      3.7752761831432     5.6865668195668    -1.6340252439239    1    1
 C      4.3731732863485     4.2916884337939    -1.3724276080904    1    1
 C      5.0717690000000     4.2891410000000     0.0000000000000    1    1
 C      5.7777666454930     2.9897242331518     0.4297482566584    1    1
 C      6.6002139519335     3.1327694120777     1.7238573429355    1    1
           5
 
 C      3.2310156732437     6.0963825296765     0.0228546654419    1    1
 C      4.2991336291515     5.3329193602453     0.8277447181333    1    1
 C      5.0717690000000     4.2891410000000     0.0000000000000    1    1
 C      6.1082935183539     3.4925418586713     0.8140312674551    1    1
 C      7.1732069980200     4.4876873256676     1.3112682530161    1    1
           5
 
 C      4.4756982936531     4.4886795100062     2.3959356518109    1    1
 C      5.3322821056799     5.1096650386526     1.2768998487596    1    1
 C      5.0717690000000     4.2891410000000     0.0000000000000    1    1
 C      6.1423174076937     4.5829659840404    -1.0673299204308    1    1
 C      5.8968272845191     3.6059518085491    -2.2321379481443    1    1
           5
 
 C      6.7800075880056     6.0607075446440     0.5021101686800    1    1
 C      5.5266114766309     5.3389043768323     1.0308807758970    1    1
 C      5.0717690000000     4.2891410000000     0.0000000000000    1    1
 C      3.6630825934113     3.7165073984827     0.2435026484747    1    1
 C      3.3708685596985     2.5948041418259    -0.7703970483888    1    1
           5
 
 C      5.7139725083815     1.7562144643892    -0.0721514565187    1    1
 C      5.9560354287684     3.1815989147527    -0.6025142424534    1    1
 C      5.0717690000000     4.2891410000000     0.0000000000000    1    1
 C      5.4525125174115     5.7242603614275    -0.4087382608880    1    1
 C      5.1010085883412     6.2226500909410    -1.8228289483546    1    1
           5
 
 C      3.4340534217190     6.0014855775627     1.0614036851550    1    1
 C      4.8870010058747     5.5115291187654     0.9182745098542    1    1
 C      5.0717690000000     4.2891410000000     0.0000000000000    1    1
 C      6.5282063258442     3.7900282728993     0.0357347875699    1    1
 C      6.7610778155511     2.4414565730229    -0.6704698989076    1    1
           5
 
 C      3.6867056747578     5.4260811113704    -1.9611511234267    1    1
 C      4.9772998679623     4.7460958358076    -1.4676061669004    1    1
 C      5.0717690000000     4.2891410000000     0.0000000000000    1    1
 C      6.1371252165272     3.3048838003899     0.5175462012530    1    1
 C      5.8513878795491     2.7559164289569     1.9277195312176    1    1
           5
 
 C      6.4394509027314     5.1190250679387    -2.1351339455619    1    1
 C      6.0615836726497     4.0022509769241    -1.1443605325538    1    1
 C      5.0717690000000     4.2891410000000     0.0000000000000    1    1
 C      4.8733476891063     3.0645703135259     0.9124997483399    1    1
 C      4.0376454793429     3.3356841250085     2.1772918013591    1    1
           5
 
 C      6.3013303980181     2.0514353560288     0.3952914268748    1    1
 C      6.2366679043721     3.3663254279087    -0.4037597831615    1    1
 C      5.0717690000000     4.2891410000000     0.0000000000000    1    1
 C      4.7181988363082     5.2747936845859    -1.1291931182151    1    1
 C      3.3821461009182     5.9872478837654    -0.8481736679144    1    1
           5
 
 C      4.1629207834766     6.2997664538479    -1.4539564327122    1    1
 C      5.3306338056848     5.3765796927038    -1.0592762160968    1    1
 C      5.0717690000000     4.2891410000000     0.0000000000000    1    1
 C      6.2770251573179     3.3333021138509     0.0730054277525    1    1
 C      7.6390698380422     4.0321754505387     0.2403678091099    1    1
           5
 
 C      5.5538843464036     6.7529975681914     0.8991989531928    1    1
 C      4.6918453673938     5.4768826715029     0.9036192534264    1    1
 C      5.0717690000000     4.2891410000000     0.0000000000000    1    1
 C      4.3208215025259     3.0206704230170     0.4457133887091    1    1
 C      4.9570431111892     1.7298775513974    -0.1026256050999    1    1
           5
 
 C      3.8205173552411     2.2583935190524     1.3021222532916    1    1
 C      3.8563554755911     3.6876320426863     0.7297649888528    1    1
 C      5.0717690000000     4.2891410000000     0.0000000000000    1    1
 C      4.9358385297478     5.7737127622585    -0.3862250166294    1    1
 C      5.9356273611865     6.3539434455580    -1.4037487051489    1    1
           5
 
 C      4.1840714747048     6.3506437446012    -1.3049893827730    1    1
 C      4.8734852352096     4.9748682052649    -1.3645738340522    1    1
 C      5.0717690000000     4.2891410000000     0.0000000000000    1    1
 C      5.6296508136654     2.8575420036849    -0.1043665139777    1    1
 C      5.8440682136250     2.3182277540230     1.3220854327067    1    1
           5
 
 C      3.0748250973089     5.8910072980184     0.5084711028611    1    1
 C      3.9158493637622     4.6757084715125     0.9412839021934    1    1
 C      5.0717690000000     4.2891410000000     0.0000000000000    1    1
 C      5.9817659613599     3.1638967449791     0.5266223223212    1    1
 C      7.0604188305361     2.8236815240174    -0.5185386334799    1    1
           5
 
 C      2.6608561945724     5.0797767323301     0.4992450799813    1    1
 C      4.1685341040379     5.3629749030432     0.6345450901168    1    1
 C      5.0717690000000     4.2891410000000     0.0000000000000    1    1
 C      6.5225284347015     4.7782003055903     0.1664879327430    1    1
 C      7.5586660219722     3.7530559045754    -0.3306012764663    1    1
           5
 
 C      5.2376700134559     6.8560862740553     0.5709058763611    1    1
 C      4.5739191035567     5.4900135367024     0.8256213606765    1    1
 C      5.0717690000000     4.2891410000000     0.0000000000000    1    1
 C      4.3668492004633     2.9625951984742     0.3390641328484    1    1
 C      2.8528632243355     2.7658231013759     0.1372548031327    1    1
           5
 
 C      4.2745690377336     2.7584022505545    -1.9100829683068    1    1
 C      5.4720728498640     3.2875365392502    -1.0991566457926    1    1
 C      5.0717690000000     4.2891410000000     0.0000000000000    1    1
 C      6.2534077514260     4.9029307002191     0.7736874294843    1    1
 C      5.7562108894854     6.0178020633326     1.7125468203418    1    1
           5
 
 C      2.5274565974181     4.5806543809915     0.6939586586136    1    1
 C      3.9159566364743     3.9733042141765     0.9674424556747    1    1
 C      5.0717690000000     4.2891410000000     0.0000000000000    1    1
 C      6.2762837436595     3.4495410017310     0.4645602745848    1    1
 C      6.6863523319693     3.9096399957333     1.8758548946404    1    1
           5
 
 C      6.3451049125394     6.4668036643349     0.4474101266791    1    1
 C      6.1198676594713     5.2902774625225    -0.5203988695437    1    1
 C      5.0717690000000     4.2891410000000     0.0000000000000    1    1
 C      5.0231156766451     2.9826316050801    -0.8137974125181    1    1
 C      5.2164240185815     3.2359682488199    -2.3204666718167    1    1
           5
 
 C      5.1280974831973     5.2785744788318     2.4534860895832    1    1
 C      4.8227754616211     4.1018335603128     1.5081505696990    1    1
 C      5.0717690000000     4.2891410000000     0.0000000000000    1    1
 C      6.5027810009710     4.7136234454574    -0.3789716085463    1    1
 C      6.9702528137879     4.8256323303782    -1.8420245511206    1    1
           5
 
 C      5.8716742911897     3.3614526431654     2.2836371242028    1    1
 C      5.1536261307707     4.4925700831401     1.5243083737468    1    1
 C      5.0717690000000     4.2891410000000     0.0000000000000    1    1
 C      4.2492970604220     5.3331070164549    -0.7779942407262    1    1
 C      4.4459278705184     5.3270373134701    -2.3053773951523    1    1
           5
 
 C      6.9118357353529     4.7549096252078     1.7506151056391    1    1
 C      6.5027136238352     4.7921493088017     0.2664209541185    1    1
 C      5.0717690000000     4.2891410000000     0.0000000000000    1    1
 C      4.0139119018616     5.0452453360909     0.8251331809905    1    1
 C      2.6124782088408     4.4159570998016     0.7175239601128    1    1
           5
 
 C      5.8002788503510     2.6604304938962    -1.8938345043259    1    1
 C      5.4154156077505     4.0954503022229    -1.4886204763392    1    1
 C      5.0717690000000     4.2891410000000     0.0000000000000    1    1
 C      4.5187995623571     5.6720609538935     0.3916087022336    1    1
 C      3.9103452691116     5.8174663278939     1.7988188721933    1    1
           5
 
 C      6.3389073821948     2.9031547155401    -1.7373625076186    1    1
 C      5.2745704419378     2.8960778444939    -0.6243769854177    1    1
 C      5.0717690000000     4.2891410000000     0.0000000000000    1    1
 C      3.9994692132711     4.3980416960374     1.0999608989834    1    1
 C      3.5214949590253     5.8323880973306     1.3928616205921    1    1
           5
 
 C      2.6171921604799     5.0635816907219     0.0721787716648    1    1
 C      3.6218908362309     3.9385524279119     0.3828066918783    1    1
 C      5.0717690000000     4.2891410000000     0.0000000000000    1    1
 C      6.1860151381298     3.3253623746245     0.4485381571739    1    1
 C      7.5179868047388     3.4560690509702    -0.3132801030320    1    1
           5
 
 C      4.7669247625127     4.4564538564366    -2.4600901599517    1    1
 C      5.1568136107942     5.2508919640521    -1.1997510147192    1    1
 C      5.0717690000000     4.2891410000000     0.0000000000000    1    1
 C      5.2761254477485     4.9707325399811     1.3657494603325    1    1
 C      5.0331388859863     4.0130909644557     2.5470538109632    1    1
           5
 
 C      5.8503981717448     5.5039935869121     2.0860733592160    1    1
 C      6.0298896233288     5.3548169092855     0.5638614435484    1    1
 C      5.0717690000000     4.2891410000000     0.0000000000000    1    1
 C      4.7769366608770     4.4157715586727    -1.5062001085269    1    1
 C      3.8611516310941     5.6108344339122    -1.8298702010551    1    1
           5
 
 C      4.5925813459791     3.9433222621176     2.5150037749240    1    1
 C      5.2326894849195     3.3800566095529     1.2325867793299    1    1
 C      5.0717690000000     4.2891410000000     0.0000000000000    1    1
 C      3.5917993984869     4.5548413461450    -0.3327062941460    1    1
 C      2.8303003858811     3.3266373726654    -0.8649036951520    1    1
           5
 
 C      7.0483285808573     4.5973810046409     1.6119601938470    1    1
 C      5.5652938511368     4.2125146164913     1.4567640916294    1    1
 C      5.0717690000000     4.2891410000000     0.0000000000000    1    1
 C      4.5596543068572     5.7088330276725    -0.3062895054343    1    1
 C      3.7036775946790     5.6244337106014    -1.5837011318871    1    1
