          60
 
 C    10.9876613298844        7.28183376281733       -6.61652628592713     
 C   -1.86377958252403        6.28226608964743        11.4805137065024     
 C   -5.18249208932532       -12.0903658361081        9.69000563912158     
 C    5.08131479547120       -13.3920839436935        9.95710796326972     
 C   -8.94419130749865       -7.33873006798204        3.04472253148619     
 C    14.8428102450197       -4.92890222342927        13.4457808833774     
 C    5.57551262148755       -8.29426230359875       -3.27031209438583     
 C    13.6580111539339       -10.0994613887089       -9.76106920032844     
 C    15.3115477800263       -12.0466183236756        14.8980204072472     
 C   -9.26529012212549       -4.28978509909831        10.0413726470969     
 C   -6.54617706860040        9.21777902860691       -13.5733874146192     
 C   -10.0752300736627        6.08171531631115       -2.83801464251937     
 C    12.7265503764187        1.16252947243151       -10.4320176931563     
 C  -3.739397545496644E-002 -0.420389398004776        2.14406760828525     
 C    14.9738283472382       -11.9467534927466      -0.861447432762200     
 C    5.97693919074363       -1.38410692797418       -6.80239434672615     
 C   -4.74796372152635        10.6879978026952       -6.79550662588390     
 C   -10.8702151665425        2.24396796034035        8.37220512799126     
 C   -11.0948710860166        5.74913853619858       -9.75167307211503     
 C    5.05311584705641       -1.18218957121777        14.2281490174919     
 C   -14.3400361467346       -4.05825286384514        4.82920896208321     
 C    5.14187571670907        11.1323333866397      -0.892530755776804     
 C    14.5143898183852        4.76706039141055        5.14221761396826     
 C   -10.8770106056081        12.2019841563472        2.74695834704794     
 C   -4.48858224402195       -2.75666659222996       -12.6494036480432     
 C   -13.9435938638583        13.6871088402338       -7.50057469936960     
 C    8.16195040863758        12.2930625760779        12.3351845575211     
 C   -4.67139774201401       -7.44467797598078       -2.14264853574075     
 C   -3.75628618349015        3.70486129551560       -2.20363777656253     
 C    1.45043221575987        14.1980599976050        14.2467224015958     
 C    10.5762257524818       -1.84479063203163        9.73276316989245     
 C    6.35011214567449        6.93387125329029        6.79406418702700     
 C   -15.2303295769117        12.5539411091347       -14.2806865794627     
 C    5.63958160422832       -7.25734211154411        6.11282430857298     
 C   -12.8190539343580       -5.38728937914479       -12.2667540314806     
 C    3.09635836828759        4.85340093962555       -12.3093658188255     
 C   0.678751248231555       -13.5973284466478        1.36806955839196     
 C   -8.88323224546881       -8.84327500281954       -9.05827025512118     
 C   -4.67619926652170        9.27967794832987       0.250439282694258     
 C    15.3703123195275        2.05146903714288        13.1447513866958     
 C   -2.78998824063997       -12.5512124379387       -13.2085018019705     
 C  -0.160544622563430        14.0560238187899       -8.39791394516055     
 C   -9.12995663334841       -12.7479234142188       -2.81586108313065     
 C    4.96923944449326        3.50364914815081       -1.42063710950200     
 C    13.3477521960648        13.2405079737845        6.07952261160733     
 C    2.34511822400015       -6.37188067780045       -12.4727357574220     
 C    11.2239801021755        7.74857994591177        14.4114798201208     
 C   -6.36320580769829       -7.85889023846000       -15.5068553152755     
 C   -8.34771387223934      -0.189870887710171       -1.80315957167535     
 C   -15.2770521459583       -3.14276360620845       -1.87042526859617     
 C   -6.43237148283553       0.697461997995756       -7.58991369962250     
 C   -9.56325263758835       -14.0534531685876        6.17277074674382     
 C   -7.59151220084083        9.73283993043353        7.05282028394103     
 C    7.32005028466753        10.5614065943754       -10.4079219325453     
 C   -9.49891133815837        15.5087533705475        14.2171766244876     
 C   -2.72891386668404        12.7413288692703        10.5824974707362     
 C   0.745090913637789       -3.16560125210097        11.2809457693890     
 C    1.93554092770586        1.57296642797519        7.62288688952916     
 C    5.29585347800951       -14.2937739580416       -9.40274220056124     
 C   -2.02881919394529       -7.69347012419732        11.2871969117034     
         119
 
 C    11.7446773258393        7.70277070054400       -7.78368559105557     
 C   -1.99627896713254        6.35431920492099        11.9629549497455     
 C   -4.76053055642020       -12.1006937417707        9.69318846541515     
 C    5.27840776707803       -14.8623441973725        9.28035121975634     
 C   -8.96212798571236       -7.87669706888775        2.65142343425195     
 C    15.3432129740182       -4.44670118818225        12.6457467416845     
 C    6.08033213749298       -9.12172210270153       -3.17834396517283     
 C    14.2066875586441       -9.98416431948484       -9.50461976179943     
 C    15.4797481752800       -13.2698491642904        13.3164836446698     
 C   -9.04450207834027       -4.05156173516386        10.8907075422907     
 C   -5.86303266473108        9.10427945696554       -13.4741547528238     
 C   -9.34541497548291        7.07808835310013       -2.40797269124933     
 C    12.8770157086572        1.47058123313684       -10.7550949352058     
 C  -0.324135391853248      -0.832197644391271        2.99907171429305     
 C   -15.4546340996644       -10.7055826444960      -0.573825739416722     
 C    5.47448736887249       -1.82819995797642       -7.31669499449617     
 C   -4.73937531106292        11.1146364416021       -7.21656627179881     
 C   -11.3252824055094        2.09231284714656        8.77402081194516     
 C   -12.3403756033379        6.17872336598868       -10.7045276352389     
 C    5.32488067721738       0.119420044041594       -15.2236485414462     
 C   -14.0069784159053       -4.79791898734340        4.94685703586331     
 C    4.61591694879525        11.0592504169093      -0.990539052257461     
 C    14.9330147786548        4.72015433924407        4.72475965838917     
 C   -11.6265292396072        11.9548226966432        3.00993950670735     
 C   -5.83198849960431       -2.85897548679781       -11.9194272925486     
 C   -13.7375886977490        14.0374929787073       -7.25141023420856     
 C    8.03147882593723        12.9665172896263        12.7427768537101     
 C   -4.42774633583815       -7.23394301537285       -1.72964292634576     
 C   -3.50638222396147        2.78597447853185       -2.74328372115967     
 C    1.44813644299447        13.4254383006255       -15.1318744903307     
 C    10.5285987722902       -2.18938453903579        9.45892270913239     
 C    6.79301936620794        7.16200834379495        7.34309948934786     
 C   -15.2389854989422        11.8743794175805       -14.2387820337334     
 C    5.71598991043894       -6.97545747998129        5.67461423561966     
 C   -14.4763407027818       -4.54707603239221       -11.8595457617012     
 C    3.67522435346788        5.76061199414003       -12.9473845056757     
 C   0.401230625362309       -14.1831026767778       0.946674332714327     
 C   -9.66074059135846       -9.11262026043732       -8.57637009674045     
 C   -3.66054752061977        9.94793094042872       0.845350285140526     
 C    15.2982570392530        2.25789712332647        14.1183025583149     
 C   -2.92222242722552       -13.2160542618095       -13.8645909677756     
 C   0.172860376515131        12.0594493716654       -9.36386532161218     
 C   -9.77856302392172       -12.6133111064252       -3.18619638746293     
 C    5.98877075193671        3.26086921541286       -1.76323987355105     
 C    14.8897248350178        13.1897612982709        5.88309886183569     
 C    2.40991104236545       -6.38164977493269       -11.7544973229364     
 C    11.2818149191529        7.68496281705188        15.2260610591379     
 C   -5.73842499104006       -8.33954514830164       -14.9466655804613     
 C   -8.20684660525166      -0.523202733839246       -1.68035612192372     
 C   -14.2901751857218       -4.35730790052137       -1.15264445440210     
 C   -7.69741072778817       0.921616243107019       -8.28028637465799     
 C   -8.93226394201252       -14.6912406254425        6.58000428820298     
 C   -7.05655003716516        9.87729386916466        7.31983702223618     
 C    7.23119952726594        10.2485492546218       -10.3613542517556     
 C   -9.49891133815837        15.5087533705475        14.2171766244876     
 C   -1.92175540088423        12.9862561776490        11.1844369407629     
 C    1.65438054848129       -2.45982243941108        11.2320647997137     
 C    1.72399111404061        1.38716191070208        7.89456078691077     
 C    3.76693709309825       -13.2957144607799       -9.15731812053301     
 C   -1.45931180832221       -7.62995201157247        10.3822358252212     
 C    11.5575266287620        12.5436716636476       0.510693335821544     
 C   -1.09323681798945       -2.08951673556176       -2.65105880710401     
 C    4.97092190825463        15.3677469919711       -3.56622699195398     
 C    7.22680692890647       -10.7886400337529       -14.8276772372191     
 C    7.63098800405142       -3.04935806652932       -1.09158852892189     
 C    10.5506923845532       -6.64577629482616        3.13568125847125     
 C   -8.04587003062835        4.01099474755036        2.29039198131810     
 C   -3.54054220517490        3.63551092681123       -14.2708007856929     
 C    3.32125351762439        9.14067096837018        12.9416928154813     
 C   0.274652276818910        2.73050258639358       -9.34242657566107     
 C    7.22946470965724        12.6216206497048        4.41759986577118     
 C   -11.7454490872394       -3.76519859750683       -6.64943573088632     
 C   -14.3517250234976       -9.47792022530579        8.42009699590671     
 C    9.91064709860658       -6.90378532662204       -5.98502926502930     
 C   -13.8418289769721        10.5078236286568       -1.79302281109274     
 C    1.79592469138987        8.16564893704470        4.33335430275884     
 C    11.3681330789311        1.02993876605068        2.20237668812315     
 C    9.92149901155855        14.7917966574592       -5.88725174306417     
 C    11.3242710907892       -12.2477350408887        10.0919864856006     
 C   -10.9486150054479        6.45553018839391       -15.5163131930149     
 C   -14.3816186658424        8.36314878026137        10.8613213813098     
 C   -6.73405514807715       -1.89840901650284        3.95500971577337     
 C    8.45894031428758       -12.4775807274184        3.62743611745493     
 C   -2.80203068997537       -5.66061319093805       -7.24540276515554     
 C   -2.71966777855155       -10.5656232065322        4.44836679815472     
 C    10.7072050555591       -14.4581205025970       -12.4391011691461     
 C    13.9022420471313        5.82683919158350       -2.81206553458382     
 C   -11.7721353238739       -7.75797249961919       -15.2162696881152     
 C   -1.36732746162935       -1.56418061172916        15.1748867170712     
 C   -10.8054020397473       -14.3339095185303       -11.7957484873118     
 C    9.33167071503464       -3.26948028297553       -13.7374832101537     
 C   -2.85253008231634        4.56910160626574        2.75275613298321     
 C    1.18071573766512        4.95090087531441       -3.70279766239052     
 C   -10.7894813951093      -0.324963204390915        15.4506339498355     
 C   -2.97987063584256       -11.5539879714539       -6.74528185225607     
 C   -14.4560279997271       0.603845140337442       0.590633545677654     
 C    10.8868869040209       -3.10745701771778       -8.31606129516616     
 C    7.50148808149938        1.73242047385027        6.48268335978010     
 C   0.789355156742534       -10.4820071822066       -2.56413326943524     
 C   -5.13356211481500       -14.9356991539157        3.78957160535563     
 C    3.82838994806055       -10.4058565166415        10.5377144002132     
 C    9.42226664441782        2.37576077606297        12.5325237042330     
 C   -8.63989690045395        13.3289303226737       -3.68326496678458     
 C    13.2084751194075        1.76541054196562       -4.81212954413896     
 C   -8.72057792161165        10.1418844231834        11.7413340595007     
 C    12.8629383981155       -12.6292526028614       -2.96659489286449     
 C   -4.69424550024256        3.28294083997229        8.55447685024112     
 C   -6.04696059695342        5.93181003051703       -7.89177165524040     
 C    1.05107570979000       -11.5088207538955       -15.1725267304699     
 C    8.63529606429427       -6.86908255438402        13.2585190709992     
 C    12.4805937037151        7.39519694148870        8.88507322708549     
 C   -3.42306572544257        14.5000533370686       -2.63433620192890     
 C    5.74211508065023        6.00193788027719       -5.68249508914824     
 C   -3.68741678990299       -3.30814002961803        9.30349050296239     
 C   4.499140410381802E-002   14.6890645596484        5.94397894253954     
 C   -10.7336924324442        10.1346608378675       -9.21811240563421     
 C    1.13926135955037       -4.54624252788008        1.53603782902396     
 C    12.7872230713559        13.5529942473275        11.7332985624225     
 C   -13.0496693170610       -14.9962648538427       0.762447011883313     
